*
*---- act defproc: OR8X1<> -----
* raw ports:  N S W E NE NW SE SW Y
*
.subckt OR8X1 N S W E NE NW SE SW Y
*.PININFO N:I S:I W:I E:I NE:I NW:I SE:I SW:I Y:O
*.POWER VDD Vdd
*.POWER GND GND
*.POWER NSUB GND
*.POWER PSUB Vdd
*
* --- node flags ---
*
* __Y (combinational)
* Y (combinational)
*
* --- end node flags ---
*
xM0_ Vdd N #17 Vdd sky130_fd_pr__pfet_01v8  W=4.5 L=0.15 nrs=1 nrd=1 nf=1
xM1_ Vdd __Y Y Vdd sky130_fd_pr__pfet_01v8  W=0.6 L=0.15 nrs=1 nrd=1 nf=1
xM2_ GND N __Y GND sky130_fd_pr__nfet_01v8 W=0.45 L=0.15 nrs=1 nrd=1 nf=1
xM3_ GND S __Y GND sky130_fd_pr__nfet_01v8 W=0.45 L=0.15 nrs=1 nrd=1 nf=1
xM4_ GND W __Y GND sky130_fd_pr__nfet_01v8 W=0.45 L=0.15 nrs=1 nrd=1 nf=1
xM5_ GND E __Y GND sky130_fd_pr__nfet_01v8 W=0.45 L=0.15 nrs=1 nrd=1 nf=1
xM6_ GND NE __Y GND sky130_fd_pr__nfet_01v8 W=0.45 L=0.15 nrs=1 nrd=1 nf=1
xM7_ GND NW __Y GND sky130_fd_pr__nfet_01v8 W=0.45 L=0.15 nrs=1 nrd=1 nf=1
xM8_ GND SE __Y GND sky130_fd_pr__nfet_01v8 W=0.45 L=0.15 nrs=1 nrd=1 nf=1
xM9_ GND SW __Y GND sky130_fd_pr__nfet_01v8 W=0.45 L=0.15 nrs=1 nrd=1 nf=1
xM10_ GND __Y Y GND sky130_fd_pr__nfet_01v8 W=0.45 L=0.15 nrs=1 nrd=1 nf=1
C_per_node_0 __Y GND 5e-15
xM11_ #11 SW __Y Vdd sky130_fd_pr__pfet_01v8  W=4.5 L=0.15 nrs=1 nrd=1 nf=1
xM12_ #12 SE #11 Vdd sky130_fd_pr__pfet_01v8  W=4.5 L=0.15 nrs=1 nrd=1 nf=1
xM13_ #13 NW #12 Vdd sky130_fd_pr__pfet_01v8  W=4.5 L=0.15 nrs=1 nrd=1 nf=1
xM14_ #14 NE #13 Vdd sky130_fd_pr__pfet_01v8  W=4.5 L=0.15 nrs=1 nrd=1 nf=1
xM15_ #15 E #14 Vdd sky130_fd_pr__pfet_01v8  W=4.5 L=0.15 nrs=1 nrd=1 nf=1
xM16_ #16 W #15 Vdd sky130_fd_pr__pfet_01v8  W=4.5 L=0.15 nrs=1 nrd=1 nf=1
xM17_ #17 S #16 Vdd sky130_fd_pr__pfet_01v8  W=4.5 L=0.15 nrs=1 nrd=1 nf=1
C_per_node_1 Y GND 5e-15
.ends
*---- end of process: OR8X1<> -----
*
*---- act defproc: subtractor<> -----
* raw ports:  max1.r max1.a min1.r min1.a max2.r max2.a min2.r min2.a max3.r max3.a min3.r min3.a max4.r max4.a reset.r reset.a O1.d[0] O1.d[1] O1.r O1.a O2.d[0] O2.d[1] O2.r O2.a O3.d[0] O3.d[1] O3.r O3.a O4.d[0] O4.d[1] O4.r O4.a
*
.subckt subtractor max1_ar max1_aa min1_ar min1_aa max2_ar max2_aa min2_ar min2_aa max3_ar max3_aa min3_ar min3_aa max4_ar max4_aa reset_ar reset_aa O1_ad_50_6 O1_ad_51_6 O1_ar O1_aa O2_ad_50_6 O2_ad_51_6 O2_ar O2_aa O3_ad_50_6 O3_ad_51_6 O3_ar O3_aa O4_ad_50_6 O4_ad_51_6 O4_ar O4_aa
*.PININFO max1_ar:I max1_aa:O min1_ar:I min1_aa:O max2_ar:I max2_aa:O min2_ar:I min2_aa:O max3_ar:I max3_aa:O min3_ar:I min3_aa:O max4_ar:I max4_aa:O reset_ar:I reset_aa:O O1_ad_50_6:O O1_ad_51_6:O O1_ar:O O1_aa:I O2_ad_50_6:O O2_ad_51_6:O O2_ar:O O2_aa:I O3_ad_50_6:O O3_ad_51_6:O O3_ar:O O3_aa:I O4_ad_50_6:O O4_ad_51_6:O O4_ar:O O4_aa:I
*.POWER VDD Vdd
*.POWER GND GND
*.POWER NSUB GND
*.POWER PSUB Vdd
*
* --- node flags ---
*
* O1_ar (state-holding): pup_reff=0.0881851; pdn_reff=0.133333
* __max1__r (combinational)
* max1_aa (state-holding): pup_reff=0.26087; pdn_reff=0.4
* __max2__r (combinational)
* max2_aa (state-holding): pup_reff=0.133333; pdn_reff=0.2
* __b1 (combinational)
* __max3__r (combinational)
* max3_aa (state-holding): pup_reff=0.133333; pdn_reff=0.2
* __b2 (combinational)
* __max4__r (combinational)
* max4_aa (state-holding): pup_reff=0.133333; pdn_reff=0.2
* b1n (combinational)
* b2n (combinational)
* O2_ar (state-holding): pup_reff=0.132027; pdn_reff=0.2
* O3_ar (state-holding): pup_reff=0.132027; pdn_reff=0.2
* O4_ar (state-holding): pup_reff=0.131579; pdn_reff=0.2
* b1 (state-holding): pup_reff=0.266667; pdn_reff=0.333333
* __min3__r (combinational)
* __min1__r (combinational)
* b2 (state-holding): pup_reff=0.266667; pdn_reff=0.333333
* __min2__r (combinational)
* min3_aa (state-holding): pup_reff=0.266667; pdn_reff=0.333333
* min2_aa (state-holding): pup_reff=0.266667; pdn_reff=0.333333
* min1_aa (state-holding): pup_reff=0.266667; pdn_reff=0.333333
* reset_aa (state-holding): pup_reff=0.266667; pdn_reff=0.333333
* __reset__r (combinational)
* __O1__a (combinational)
* __O2__a (combinational)
* __O3__a (combinational)
* __O4__a (combinational)
* O1_ad_50_6 (state-holding): pup_reff=-1; pdn_reff=0.333333
* __Reset (combinational)
* O1_ad_51_6 (state-holding): pup_reff=-1; pdn_reff=0.333333
* O2_ad_50_6 (state-holding): pup_reff=-1; pdn_reff=0.333333
* O2_ad_51_6 (state-holding): pup_reff=-1; pdn_reff=0.333333
* O3_ad_50_6 (state-holding): pup_reff=-1; pdn_reff=0.333333
* O3_ad_51_6 (state-holding): pup_reff=-1; pdn_reff=0.333333
* O4_ad_50_6 (state-holding): pup_reff=-1; pdn_reff=0.333333
* O4_ad_51_6 (state-holding): pup_reff=-1; pdn_reff=0.333333
*
* --- end node flags ---
*
xM0_ Vdd Reset #3 Vdd sky130_fd_pr__pfet_01v8  W=8.475 L=0.15 nrs=1 nrd=1 nf=1
xM1_ Vdd Reset #30 Vdd sky130_fd_pr__pfet_01v8  W=5.7 L=0.15 nrs=1 nrd=1 nf=1
xM2_ Vdd Reset #43 Vdd sky130_fd_pr__pfet_01v8  W=5.7 L=0.15 nrs=1 nrd=1 nf=1
xM3_ Vdd Reset #58 Vdd sky130_fd_pr__pfet_01v8  W=5.7 L=0.15 nrs=1 nrd=1 nf=1
xM4_ Vdd Reset #62 Vdd sky130_fd_pr__pfet_01v8  W=1.125 L=0.15 nrs=1 nrd=1 nf=1
xM5_ Vdd Reset #68 Vdd sky130_fd_pr__pfet_01v8  W=1.125 L=0.15 nrs=1 nrd=1 nf=1
xM6_ Vdd Reset #74 Vdd sky130_fd_pr__pfet_01v8  W=2.25 L=0.15 nrs=1 nrd=1 nf=1
xM7_ Vdd Reset #78 Vdd sky130_fd_pr__pfet_01v8  W=2.25 L=0.15 nrs=1 nrd=1 nf=1
xM8_ Vdd Reset #82 Vdd sky130_fd_pr__pfet_01v8  W=2.25 L=0.15 nrs=1 nrd=1 nf=1
xM9_ Vdd Reset #86 Vdd sky130_fd_pr__pfet_01v8  W=2.25 L=0.15 nrs=1 nrd=1 nf=1
xM10_ Vdd Reset #89 Vdd sky130_fd_pr__pfet_01v8  W=1.725 L=0.15 nrs=1 nrd=1 nf=1
xM11_ Vdd Reset #93 Vdd sky130_fd_pr__pfet_01v8  W=3.375 L=0.15 nrs=1 nrd=1 nf=1
xM12_ Vdd Reset #98 Vdd sky130_fd_pr__pfet_01v8  W=3.375 L=0.15 nrs=1 nrd=1 nf=1
xM13_ Vdd Reset #104 Vdd sky130_fd_pr__pfet_01v8  W=3.375 L=0.15 nrs=1 nrd=1 nf=1
xM14_ Vdd O1_aa __O1__a Vdd sky130_fd_pr__pfet_01v8  W=0.6 L=0.15 nrs=1 nrd=1 nf=1
xM15_ Vdd O2_aa __O2__a Vdd sky130_fd_pr__pfet_01v8  W=0.6 L=0.15 nrs=1 nrd=1 nf=1
xM16_ Vdd O3_aa __O3__a Vdd sky130_fd_pr__pfet_01v8  W=0.6 L=0.15 nrs=1 nrd=1 nf=1
xM17_ Vdd O4_aa __O4__a Vdd sky130_fd_pr__pfet_01v8  W=0.6 L=0.15 nrs=1 nrd=1 nf=1
xM18_ Vdd max1_ar __max1__r Vdd sky130_fd_pr__pfet_01v8  W=0.6 L=0.15 nrs=1 nrd=1 nf=1
xM19_ Vdd max2_ar __max2__r Vdd sky130_fd_pr__pfet_01v8  W=0.6 L=0.15 nrs=1 nrd=1 nf=1
xM20_ Vdd max3_ar __max3__r Vdd sky130_fd_pr__pfet_01v8  W=0.6 L=0.15 nrs=1 nrd=1 nf=1
xM21_ Vdd max4_ar __max4__r Vdd sky130_fd_pr__pfet_01v8  W=0.6 L=0.15 nrs=1 nrd=1 nf=1
xM22_ Vdd min1_ar __min1__r Vdd sky130_fd_pr__pfet_01v8  W=0.6 L=0.15 nrs=1 nrd=1 nf=1
xM23_ Vdd min2_ar __min2__r Vdd sky130_fd_pr__pfet_01v8  W=0.6 L=0.15 nrs=1 nrd=1 nf=1
xM24_ Vdd min3_ar __min3__r Vdd sky130_fd_pr__pfet_01v8  W=0.6 L=0.15 nrs=1 nrd=1 nf=1
xM25_ Vdd reset_ar __reset__r Vdd sky130_fd_pr__pfet_01v8  W=0.6 L=0.15 nrs=1 nrd=1 nf=1
xM26_ Vdd Reset __Reset Vdd sky130_fd_pr__pfet_01v8  W=0.75 L=0.15 nrs=1 nrd=1 nf=1
xM27_ Vdd b1 __b1 Vdd sky130_fd_pr__pfet_01v8  W=0.6 L=0.15 nrs=1 nrd=1 nf=1
xM28_ Vdd __b1 b1n Vdd sky130_fd_pr__pfet_01v8  W=0.6 L=0.15 nrs=1 nrd=1 nf=1
xM29_ Vdd b2 __b2 Vdd sky130_fd_pr__pfet_01v8  W=0.6 L=0.15 nrs=1 nrd=1 nf=1
xM30_ Vdd __b2 b2n Vdd sky130_fd_pr__pfet_01v8  W=0.6 L=0.15 nrs=1 nrd=1 nf=1
xM31_ Vdd O1_ar #fb128# Vdd sky130_fd_pr__pfet_01v8  W=0.75 L=0.3 nrs=1 nrd=1 nf=1
xM32_ Vdd max1_aa #fb131# Vdd sky130_fd_pr__pfet_01v8  W=0.75 L=0.3 nrs=1 nrd=1 nf=1
xM33_keeper Vdd GND #129 Vdd sky130_fd_pr__pfet_01v8  W=0.45 L=0.225 nrs=1 nrd=1 nf=1
xM34_ Vdd max2_aa #fb134# Vdd sky130_fd_pr__pfet_01v8  W=0.75 L=0.3 nrs=1 nrd=1 nf=1
xM35_keeper Vdd GND #132 Vdd sky130_fd_pr__pfet_01v8  W=0.45 L=1.05 nrs=1 nrd=1 nf=1
xM36_ Vdd max3_aa #fb137# Vdd sky130_fd_pr__pfet_01v8  W=0.75 L=0.3 nrs=1 nrd=1 nf=1
xM37_keeper Vdd GND #135 Vdd sky130_fd_pr__pfet_01v8  W=0.45 L=0.45 nrs=1 nrd=1 nf=1
xM38_ Vdd max4_aa #fb140# Vdd sky130_fd_pr__pfet_01v8  W=0.75 L=0.3 nrs=1 nrd=1 nf=1
xM39_keeper Vdd GND #138 Vdd sky130_fd_pr__pfet_01v8  W=0.45 L=0.45 nrs=1 nrd=1 nf=1
xM40_ Vdd O2_ar #fb143# Vdd sky130_fd_pr__pfet_01v8  W=0.75 L=0.3 nrs=1 nrd=1 nf=1
xM41_keeper Vdd GND #141 Vdd sky130_fd_pr__pfet_01v8  W=0.45 L=0.45 nrs=1 nrd=1 nf=1
xM42_ Vdd O3_ar #fb146# Vdd sky130_fd_pr__pfet_01v8  W=0.75 L=0.3 nrs=1 nrd=1 nf=1
xM43_keeper Vdd GND #144 Vdd sky130_fd_pr__pfet_01v8  W=0.45 L=0.45 nrs=1 nrd=1 nf=1
xM44_ Vdd O4_ar #fb149# Vdd sky130_fd_pr__pfet_01v8  W=0.75 L=0.3 nrs=1 nrd=1 nf=1
xM45_keeper Vdd GND #147 Vdd sky130_fd_pr__pfet_01v8  W=0.45 L=0.45 nrs=1 nrd=1 nf=1
xM46_keeper Vdd GND #150 Vdd sky130_fd_pr__pfet_01v8  W=0.45 L=0.45 nrs=1 nrd=1 nf=1
xM47_keeper Vdd GND #152 Vdd sky130_fd_pr__pfet_01v8  W=0.45 L=0.825 nrs=1 nrd=1 nf=1
xM48_ Vdd min3_aa #fb156# Vdd sky130_fd_pr__pfet_01v8  W=0.75 L=0.3 nrs=1 nrd=1 nf=1
xM49_keeper Vdd GND #154 Vdd sky130_fd_pr__pfet_01v8  W=0.45 L=0.825 nrs=1 nrd=1 nf=1
xM50_ Vdd min2_aa #fb159# Vdd sky130_fd_pr__pfet_01v8  W=0.75 L=0.3 nrs=1 nrd=1 nf=1
xM51_keeper Vdd GND #157 Vdd sky130_fd_pr__pfet_01v8  W=0.45 L=0.825 nrs=1 nrd=1 nf=1
xM52_ Vdd min1_aa #fb162# Vdd sky130_fd_pr__pfet_01v8  W=0.75 L=0.3 nrs=1 nrd=1 nf=1
xM53_keeper Vdd GND #160 Vdd sky130_fd_pr__pfet_01v8  W=0.45 L=0.825 nrs=1 nrd=1 nf=1
xM54_ Vdd reset_aa #fb165# Vdd sky130_fd_pr__pfet_01v8  W=0.75 L=0.3 nrs=1 nrd=1 nf=1
xM55_keeper Vdd GND #163 Vdd sky130_fd_pr__pfet_01v8  W=0.45 L=0.825 nrs=1 nrd=1 nf=1
xM56_ Vdd O1_ad_50_6 #fb168# Vdd sky130_fd_pr__pfet_01v8  W=0.75 L=0.3 nrs=1 nrd=1 nf=1
xM57_keeper Vdd GND #166 Vdd sky130_fd_pr__pfet_01v8  W=0.45 L=0.825 nrs=1 nrd=1 nf=1
xM58_ Vdd O1_ad_51_6 #fb170# Vdd sky130_fd_pr__pfet_01v8  W=0.75 L=0.3 nrs=1 nrd=1 nf=1
xM59_keeper Vdd GND #169 Vdd sky130_fd_pr__pfet_01v8  W=0.45 L=0.825 nrs=1 nrd=1 nf=1
xM60_ Vdd O2_ad_50_6 #fb172# Vdd sky130_fd_pr__pfet_01v8  W=0.75 L=0.3 nrs=1 nrd=1 nf=1
xM61_keeper Vdd GND #171 Vdd sky130_fd_pr__pfet_01v8  W=0.45 L=0.825 nrs=1 nrd=1 nf=1
xM62_ Vdd O2_ad_51_6 #fb174# Vdd sky130_fd_pr__pfet_01v8  W=0.75 L=0.3 nrs=1 nrd=1 nf=1
xM63_keeper Vdd GND #173 Vdd sky130_fd_pr__pfet_01v8  W=0.45 L=0.825 nrs=1 nrd=1 nf=1
xM64_ Vdd O3_ad_50_6 #fb176# Vdd sky130_fd_pr__pfet_01v8  W=0.75 L=0.3 nrs=1 nrd=1 nf=1
xM65_keeper Vdd GND #175 Vdd sky130_fd_pr__pfet_01v8  W=0.45 L=0.825 nrs=1 nrd=1 nf=1
xM66_ Vdd O3_ad_51_6 #fb178# Vdd sky130_fd_pr__pfet_01v8  W=0.75 L=0.3 nrs=1 nrd=1 nf=1
xM67_keeper Vdd GND #177 Vdd sky130_fd_pr__pfet_01v8  W=0.45 L=0.825 nrs=1 nrd=1 nf=1
xM68_ Vdd O4_ad_50_6 #fb180# Vdd sky130_fd_pr__pfet_01v8  W=0.75 L=0.3 nrs=1 nrd=1 nf=1
xM69_keeper Vdd GND #179 Vdd sky130_fd_pr__pfet_01v8  W=0.45 L=0.825 nrs=1 nrd=1 nf=1
xM70_ Vdd O4_ad_51_6 #fb182# Vdd sky130_fd_pr__pfet_01v8  W=0.75 L=0.3 nrs=1 nrd=1 nf=1
xM71_keeper Vdd GND #181 Vdd sky130_fd_pr__pfet_01v8  W=0.45 L=0.825 nrs=1 nrd=1 nf=1
xM72_keeper Vdd GND #183 Vdd sky130_fd_pr__pfet_01v8  W=0.45 L=0.825 nrs=1 nrd=1 nf=1
xM73_ GND Reset O1_ar GND sky130_fd_pr__nfet_01v8 W=1.125 L=0.15 nrs=1 nrd=1 nf=1
xM74_ GND max1_aa O1_ar GND sky130_fd_pr__nfet_01v8 W=1.125 L=0.15 nrs=1 nrd=1 nf=1
xM75_ GND max2_aa #23 GND sky130_fd_pr__nfet_01v8 W=2.25 L=0.15 nrs=1 nrd=1 nf=1
xM76_ GND max3_aa #25 GND sky130_fd_pr__nfet_01v8 W=2.25 L=0.15 nrs=1 nrd=1 nf=1
xM77_ GND max4_aa #28 GND sky130_fd_pr__nfet_01v8 W=3.375 L=0.15 nrs=1 nrd=1 nf=1
xM78_ GND Reset O2_ar GND sky130_fd_pr__nfet_01v8 W=0.75 L=0.15 nrs=1 nrd=1 nf=1
xM79_ GND max2_aa #38 GND sky130_fd_pr__nfet_01v8 W=1.5 L=0.15 nrs=1 nrd=1 nf=1
xM80_ GND max3_aa #39 GND sky130_fd_pr__nfet_01v8 W=1.5 L=0.15 nrs=1 nrd=1 nf=1
xM81_ GND max4_aa #41 GND sky130_fd_pr__nfet_01v8 W=2.25 L=0.15 nrs=1 nrd=1 nf=1
xM82_ GND Reset O3_ar GND sky130_fd_pr__nfet_01v8 W=0.75 L=0.15 nrs=1 nrd=1 nf=1
xM83_ GND max3_aa #51 GND sky130_fd_pr__nfet_01v8 W=2.25 L=0.15 nrs=1 nrd=1 nf=1
xM84_ GND max4_aa #53 GND sky130_fd_pr__nfet_01v8 W=2.25 L=0.15 nrs=1 nrd=1 nf=1
xM85_ GND Reset O4_ar GND sky130_fd_pr__nfet_01v8 W=0.75 L=0.15 nrs=1 nrd=1 nf=1
xM86_ GND max4_aa #60 GND sky130_fd_pr__nfet_01v8 W=2.25 L=0.15 nrs=1 nrd=1 nf=1
xM87_ GND Reset b1 GND sky130_fd_pr__nfet_01v8 W=0.45 L=0.15 nrs=1 nrd=1 nf=1
xM88_ GND min2_ar b1 GND sky130_fd_pr__nfet_01v8 W=0.45 L=0.15 nrs=1 nrd=1 nf=1
xM89_ GND reset_ar b1 GND sky130_fd_pr__nfet_01v8 W=0.45 L=0.15 nrs=1 nrd=1 nf=1
xM90_ GND Reset b2 GND sky130_fd_pr__nfet_01v8 W=0.45 L=0.15 nrs=1 nrd=1 nf=1
xM91_ GND min1_ar b2 GND sky130_fd_pr__nfet_01v8 W=0.45 L=0.15 nrs=1 nrd=1 nf=1
xM92_ GND reset_ar b2 GND sky130_fd_pr__nfet_01v8 W=0.45 L=0.15 nrs=1 nrd=1 nf=1
xM93_ GND Reset min3_aa GND sky130_fd_pr__nfet_01v8 W=0.45 L=0.15 nrs=1 nrd=1 nf=1
xM94_ GND __min3__r min3_aa GND sky130_fd_pr__nfet_01v8 W=0.45 L=0.15 nrs=1 nrd=1 nf=1
xM95_ GND Reset min2_aa GND sky130_fd_pr__nfet_01v8 W=0.45 L=0.15 nrs=1 nrd=1 nf=1
xM96_ GND __min2__r min2_aa GND sky130_fd_pr__nfet_01v8 W=0.45 L=0.15 nrs=1 nrd=1 nf=1
xM97_ GND Reset min1_aa GND sky130_fd_pr__nfet_01v8 W=0.45 L=0.15 nrs=1 nrd=1 nf=1
xM98_ GND __min1__r min1_aa GND sky130_fd_pr__nfet_01v8 W=0.45 L=0.15 nrs=1 nrd=1 nf=1
xM99_ GND Reset reset_aa GND sky130_fd_pr__nfet_01v8 W=0.45 L=0.15 nrs=1 nrd=1 nf=1
xM100_ GND __reset__r reset_aa GND sky130_fd_pr__nfet_01v8 W=0.45 L=0.15 nrs=1 nrd=1 nf=1
xM101_ GND Reset max1_aa GND sky130_fd_pr__nfet_01v8 W=0.45 L=0.15 nrs=1 nrd=1 nf=1
xM102_ GND __O1__a #91 GND sky130_fd_pr__nfet_01v8 W=0.75 L=0.15 nrs=1 nrd=1 nf=1
xM103_ GND Reset max2_aa GND sky130_fd_pr__nfet_01v8 W=0.75 L=0.15 nrs=1 nrd=1 nf=1
xM104_ GND __O1__a #96 GND sky130_fd_pr__nfet_01v8 W=2.25 L=0.15 nrs=1 nrd=1 nf=1
xM105_ GND Reset max3_aa GND sky130_fd_pr__nfet_01v8 W=0.75 L=0.15 nrs=1 nrd=1 nf=1
xM106_ GND __O1__a #102 GND sky130_fd_pr__nfet_01v8 W=3 L=0.15 nrs=1 nrd=1 nf=1
xM107_ GND Reset max4_aa GND sky130_fd_pr__nfet_01v8 W=0.75 L=0.15 nrs=1 nrd=1 nf=1
xM108_ GND __O1__a #109 GND sky130_fd_pr__nfet_01v8 W=3.75 L=0.15 nrs=1 nrd=1 nf=1
xM109_ GND __Reset O1_ad_50_6 GND sky130_fd_pr__nfet_01v8 W=0.45 L=0.15 nrs=1 nrd=1 nf=1
xM110_ GND __Reset O1_ad_51_6 GND sky130_fd_pr__nfet_01v8 W=0.45 L=0.15 nrs=1 nrd=1 nf=1
xM111_ GND __Reset O2_ad_50_6 GND sky130_fd_pr__nfet_01v8 W=0.45 L=0.15 nrs=1 nrd=1 nf=1
xM112_ GND __Reset O2_ad_51_6 GND sky130_fd_pr__nfet_01v8 W=0.45 L=0.15 nrs=1 nrd=1 nf=1
xM113_ GND __Reset O3_ad_50_6 GND sky130_fd_pr__nfet_01v8 W=0.45 L=0.15 nrs=1 nrd=1 nf=1
xM114_ GND __Reset O3_ad_51_6 GND sky130_fd_pr__nfet_01v8 W=0.45 L=0.15 nrs=1 nrd=1 nf=1
xM115_ GND __Reset O4_ad_50_6 GND sky130_fd_pr__nfet_01v8 W=0.45 L=0.15 nrs=1 nrd=1 nf=1
xM116_ GND __Reset O4_ad_51_6 GND sky130_fd_pr__nfet_01v8 W=0.45 L=0.15 nrs=1 nrd=1 nf=1
xM117_ GND O1_aa __O1__a GND sky130_fd_pr__nfet_01v8 W=0.45 L=0.15 nrs=1 nrd=1 nf=1
xM118_ GND O2_aa __O2__a GND sky130_fd_pr__nfet_01v8 W=0.45 L=0.15 nrs=1 nrd=1 nf=1
xM119_ GND O3_aa __O3__a GND sky130_fd_pr__nfet_01v8 W=0.45 L=0.15 nrs=1 nrd=1 nf=1
xM120_ GND O4_aa __O4__a GND sky130_fd_pr__nfet_01v8 W=0.45 L=0.15 nrs=1 nrd=1 nf=1
xM121_ GND max1_ar __max1__r GND sky130_fd_pr__nfet_01v8 W=0.45 L=0.15 nrs=1 nrd=1 nf=1
xM122_ GND max2_ar __max2__r GND sky130_fd_pr__nfet_01v8 W=0.45 L=0.15 nrs=1 nrd=1 nf=1
xM123_ GND max3_ar __max3__r GND sky130_fd_pr__nfet_01v8 W=0.45 L=0.15 nrs=1 nrd=1 nf=1
xM124_ GND max4_ar __max4__r GND sky130_fd_pr__nfet_01v8 W=0.45 L=0.15 nrs=1 nrd=1 nf=1
xM125_ GND min1_ar __min1__r GND sky130_fd_pr__nfet_01v8 W=0.45 L=0.15 nrs=1 nrd=1 nf=1
xM126_ GND min2_ar __min2__r GND sky130_fd_pr__nfet_01v8 W=0.45 L=0.15 nrs=1 nrd=1 nf=1
xM127_ GND min3_ar __min3__r GND sky130_fd_pr__nfet_01v8 W=0.45 L=0.15 nrs=1 nrd=1 nf=1
xM128_ GND reset_ar __reset__r GND sky130_fd_pr__nfet_01v8 W=0.45 L=0.15 nrs=1 nrd=1 nf=1
xM129_ GND Reset __Reset GND sky130_fd_pr__nfet_01v8 W=0.45 L=0.15 nrs=1 nrd=1 nf=1
xM130_ GND b1 __b1 GND sky130_fd_pr__nfet_01v8 W=0.45 L=0.15 nrs=1 nrd=1 nf=1
xM131_ GND __b1 b1n GND sky130_fd_pr__nfet_01v8 W=0.45 L=0.15 nrs=1 nrd=1 nf=1
xM132_ GND b2 __b2 GND sky130_fd_pr__nfet_01v8 W=0.45 L=0.15 nrs=1 nrd=1 nf=1
xM133_ GND __b2 b2n GND sky130_fd_pr__nfet_01v8 W=0.45 L=0.15 nrs=1 nrd=1 nf=1
xM134_ GND O1_ar #fb128# GND sky130_fd_pr__nfet_01v8 W=0.45 L=0.3 nrs=1 nrd=1 nf=1
xM135_ GND max1_aa #fb131# GND sky130_fd_pr__nfet_01v8 W=0.45 L=0.3 nrs=1 nrd=1 nf=1
xM136_keeper GND Vdd #130 GND sky130_fd_pr__nfet_01v8 W=0.45 L=0.45 nrs=1 nrd=1 nf=1
xM137_ GND max2_aa #fb134# GND sky130_fd_pr__nfet_01v8 W=0.45 L=0.3 nrs=1 nrd=1 nf=1
xM138_keeper GND Vdd #133 GND sky130_fd_pr__nfet_01v8 W=0.45 L=1.65 nrs=1 nrd=1 nf=1
xM139_ GND max3_aa #fb137# GND sky130_fd_pr__nfet_01v8 W=0.45 L=0.3 nrs=1 nrd=1 nf=1
xM140_keeper GND Vdd #136 GND sky130_fd_pr__nfet_01v8 W=0.45 L=0.75 nrs=1 nrd=1 nf=1
xM141_ GND max4_aa #fb140# GND sky130_fd_pr__nfet_01v8 W=0.45 L=0.3 nrs=1 nrd=1 nf=1
xM142_keeper GND Vdd #139 GND sky130_fd_pr__nfet_01v8 W=0.45 L=0.75 nrs=1 nrd=1 nf=1
xM143_ GND O2_ar #fb143# GND sky130_fd_pr__nfet_01v8 W=0.45 L=0.3 nrs=1 nrd=1 nf=1
xM144_keeper GND Vdd #142 GND sky130_fd_pr__nfet_01v8 W=0.45 L=0.75 nrs=1 nrd=1 nf=1
xM145_ GND O3_ar #fb146# GND sky130_fd_pr__nfet_01v8 W=0.45 L=0.3 nrs=1 nrd=1 nf=1
xM146_keeper GND Vdd #145 GND sky130_fd_pr__nfet_01v8 W=0.45 L=0.75 nrs=1 nrd=1 nf=1
xM147_ GND O4_ar #fb149# GND sky130_fd_pr__nfet_01v8 W=0.45 L=0.3 nrs=1 nrd=1 nf=1
xM148_keeper GND Vdd #148 GND sky130_fd_pr__nfet_01v8 W=0.45 L=0.75 nrs=1 nrd=1 nf=1
xM149_keeper GND Vdd #151 GND sky130_fd_pr__nfet_01v8 W=0.45 L=0.75 nrs=1 nrd=1 nf=1
xM150_keeper GND Vdd #153 GND sky130_fd_pr__nfet_01v8 W=0.45 L=1.65 nrs=1 nrd=1 nf=1
xM151_ GND min3_aa #fb156# GND sky130_fd_pr__nfet_01v8 W=0.45 L=0.3 nrs=1 nrd=1 nf=1
xM152_keeper GND Vdd #155 GND sky130_fd_pr__nfet_01v8 W=0.45 L=1.65 nrs=1 nrd=1 nf=1
xM153_ GND min2_aa #fb159# GND sky130_fd_pr__nfet_01v8 W=0.45 L=0.3 nrs=1 nrd=1 nf=1
xM154_keeper GND Vdd #158 GND sky130_fd_pr__nfet_01v8 W=0.45 L=1.65 nrs=1 nrd=1 nf=1
xM155_ GND min1_aa #fb162# GND sky130_fd_pr__nfet_01v8 W=0.45 L=0.3 nrs=1 nrd=1 nf=1
xM156_keeper GND Vdd #161 GND sky130_fd_pr__nfet_01v8 W=0.45 L=1.65 nrs=1 nrd=1 nf=1
xM157_ GND reset_aa #fb165# GND sky130_fd_pr__nfet_01v8 W=0.45 L=0.3 nrs=1 nrd=1 nf=1
xM158_keeper GND Vdd #164 GND sky130_fd_pr__nfet_01v8 W=0.45 L=1.65 nrs=1 nrd=1 nf=1
xM159_ GND O1_ad_50_6 #fb168# GND sky130_fd_pr__nfet_01v8 W=0.45 L=0.3 nrs=1 nrd=1 nf=1
xM160_keeper GND #fb168# O1_ad_50_6 GND sky130_fd_pr__nfet_01v8 W=0.45 L=0.15 nrs=1 nrd=1 nf=1
xM161_ GND O1_ad_51_6 #fb170# GND sky130_fd_pr__nfet_01v8 W=0.45 L=0.3 nrs=1 nrd=1 nf=1
xM162_keeper GND #fb170# O1_ad_51_6 GND sky130_fd_pr__nfet_01v8 W=0.45 L=0.15 nrs=1 nrd=1 nf=1
xM163_ GND O2_ad_50_6 #fb172# GND sky130_fd_pr__nfet_01v8 W=0.45 L=0.3 nrs=1 nrd=1 nf=1
xM164_keeper GND #fb172# O2_ad_50_6 GND sky130_fd_pr__nfet_01v8 W=0.45 L=0.15 nrs=1 nrd=1 nf=1
xM165_ GND O2_ad_51_6 #fb174# GND sky130_fd_pr__nfet_01v8 W=0.45 L=0.3 nrs=1 nrd=1 nf=1
xM166_keeper GND #fb174# O2_ad_51_6 GND sky130_fd_pr__nfet_01v8 W=0.45 L=0.15 nrs=1 nrd=1 nf=1
xM167_ GND O3_ad_50_6 #fb176# GND sky130_fd_pr__nfet_01v8 W=0.45 L=0.3 nrs=1 nrd=1 nf=1
xM168_keeper GND #fb176# O3_ad_50_6 GND sky130_fd_pr__nfet_01v8 W=0.45 L=0.15 nrs=1 nrd=1 nf=1
xM169_ GND O3_ad_51_6 #fb178# GND sky130_fd_pr__nfet_01v8 W=0.45 L=0.3 nrs=1 nrd=1 nf=1
xM170_keeper GND #fb178# O3_ad_51_6 GND sky130_fd_pr__nfet_01v8 W=0.45 L=0.15 nrs=1 nrd=1 nf=1
xM171_ GND O4_ad_50_6 #fb180# GND sky130_fd_pr__nfet_01v8 W=0.45 L=0.3 nrs=1 nrd=1 nf=1
xM172_keeper GND #fb180# O4_ad_50_6 GND sky130_fd_pr__nfet_01v8 W=0.45 L=0.15 nrs=1 nrd=1 nf=1
xM173_ GND O4_ad_51_6 #fb182# GND sky130_fd_pr__nfet_01v8 W=0.45 L=0.3 nrs=1 nrd=1 nf=1
xM174_keeper GND #fb182# O4_ad_51_6 GND sky130_fd_pr__nfet_01v8 W=0.45 L=0.15 nrs=1 nrd=1 nf=1
xM175_keeper GND Vdd #167 GND sky130_fd_pr__nfet_01v8 W=0.45 L=1.65 nrs=1 nrd=1 nf=1
C_per_node_0 O1_ar GND 5e-15
xM176_ #5 max1_aa O1_ar Vdd sky130_fd_pr__pfet_01v8  W=6.375 L=0.15 nrs=1 nrd=1 nf=1
xM177_ #8 __b1 O1_ar Vdd sky130_fd_pr__pfet_01v8  W=8.475 L=0.15 nrs=1 nrd=1 nf=1
xM178_ #13 __b2 O1_ar Vdd sky130_fd_pr__pfet_01v8  W=8.475 L=0.15 nrs=1 nrd=1 nf=1
xM179_ #18 __b2 O1_ar Vdd sky130_fd_pr__pfet_01v8  W=10.65 L=0.15 nrs=1 nrd=1 nf=1
xM180_ #23 b1n O1_ar GND sky130_fd_pr__nfet_01v8 W=2.25 L=0.15 nrs=1 nrd=1 nf=1
xM181_ #25 b2n O1_ar GND sky130_fd_pr__nfet_01v8 W=2.25 L=0.15 nrs=1 nrd=1 nf=1
xM182_ #27 b2n O1_ar GND sky130_fd_pr__nfet_01v8 W=3.375 L=0.15 nrs=1 nrd=1 nf=1
xM183_keeper #129 #fb128# O1_ar Vdd sky130_fd_pr__pfet_01v8  W=0.45 L=0.15 nrs=1 nrd=1 nf=1
xM184_keeper #130 #fb128# O1_ar GND sky130_fd_pr__nfet_01v8 W=0.45 L=0.15 nrs=1 nrd=1 nf=1
xM185_ #3 __max1__r #5 Vdd sky130_fd_pr__pfet_01v8  W=3.225 L=0.15 nrs=1 nrd=1 nf=1
xM186_ #3 __max2__r #9 Vdd sky130_fd_pr__pfet_01v8  W=4.275 L=0.15 nrs=1 nrd=1 nf=1
xM187_ #3 __max3__r #14 Vdd sky130_fd_pr__pfet_01v8  W=4.275 L=0.15 nrs=1 nrd=1 nf=1
xM188_ #3 __max4__r #20 Vdd sky130_fd_pr__pfet_01v8  W=5.325 L=0.15 nrs=1 nrd=1 nf=1
C_per_node_1 __max1__r GND 5e-15
C_per_node_2 max1_aa GND 5e-15
xM189_ #88 __max1__r max1_aa Vdd sky130_fd_pr__pfet_01v8  W=1.725 L=0.15 nrs=1 nrd=1 nf=1
xM190_ #91 __max1__r max1_aa GND sky130_fd_pr__nfet_01v8 W=0.75 L=0.15 nrs=1 nrd=1 nf=1
xM191_keeper #132 #fb131# max1_aa Vdd sky130_fd_pr__pfet_01v8  W=0.45 L=0.15 nrs=1 nrd=1 nf=1
xM192_keeper #133 #fb131# max1_aa GND sky130_fd_pr__nfet_01v8 W=0.45 L=0.15 nrs=1 nrd=1 nf=1
xM193_ #9 max2_aa #8 Vdd sky130_fd_pr__pfet_01v8  W=8.475 L=0.15 nrs=1 nrd=1 nf=1
C_per_node_3 __max2__r GND 5e-15
C_per_node_4 max2_aa GND 5e-15
xM194_ #92 __max2__r max2_aa Vdd sky130_fd_pr__pfet_01v8  W=3.375 L=0.15 nrs=1 nrd=1 nf=1
xM195_ #95 __max2__r max2_aa GND sky130_fd_pr__nfet_01v8 W=2.25 L=0.15 nrs=1 nrd=1 nf=1
xM196_keeper #135 #fb134# max2_aa Vdd sky130_fd_pr__pfet_01v8  W=0.45 L=0.15 nrs=1 nrd=1 nf=1
xM197_keeper #136 #fb134# max2_aa GND sky130_fd_pr__nfet_01v8 W=0.45 L=0.15 nrs=1 nrd=1 nf=1
C_per_node_5 __b1 GND 5e-15
xM198_ #14 max3_aa #13 Vdd sky130_fd_pr__pfet_01v8  W=8.475 L=0.15 nrs=1 nrd=1 nf=1
C_per_node_6 __max3__r GND 5e-15
C_per_node_7 max3_aa GND 5e-15
xM199_ #97 __max3__r max3_aa Vdd sky130_fd_pr__pfet_01v8  W=3.375 L=0.15 nrs=1 nrd=1 nf=1
xM200_ #100 __max3__r max3_aa GND sky130_fd_pr__nfet_01v8 W=3 L=0.15 nrs=1 nrd=1 nf=1
xM201_keeper #138 #fb137# max3_aa Vdd sky130_fd_pr__pfet_01v8  W=0.45 L=0.15 nrs=1 nrd=1 nf=1
xM202_keeper #139 #fb137# max3_aa GND sky130_fd_pr__nfet_01v8 W=0.45 L=0.15 nrs=1 nrd=1 nf=1
C_per_node_8 __b2 GND 5e-15
xM203_ #19 __b1 #18 Vdd sky130_fd_pr__pfet_01v8  W=10.65 L=0.15 nrs=1 nrd=1 nf=1
xM204_ #20 max4_aa #19 Vdd sky130_fd_pr__pfet_01v8  W=10.65 L=0.15 nrs=1 nrd=1 nf=1
C_per_node_9 __max4__r GND 5e-15
C_per_node_10 max4_aa GND 5e-15
xM205_ #103 __max4__r max4_aa Vdd sky130_fd_pr__pfet_01v8  W=3.375 L=0.15 nrs=1 nrd=1 nf=1
xM206_ #106 __max4__r max4_aa GND sky130_fd_pr__nfet_01v8 W=3.75 L=0.15 nrs=1 nrd=1 nf=1
xM207_keeper #141 #fb140# max4_aa Vdd sky130_fd_pr__pfet_01v8  W=0.45 L=0.15 nrs=1 nrd=1 nf=1
xM208_keeper #142 #fb140# max4_aa GND sky130_fd_pr__nfet_01v8 W=0.45 L=0.15 nrs=1 nrd=1 nf=1
C_per_node_11 b1n GND 5e-15
C_per_node_12 b2n GND 5e-15
xM209_ #28 b1n #27 GND sky130_fd_pr__nfet_01v8 W=3.375 L=0.15 nrs=1 nrd=1 nf=1
C_per_node_13 O2_ar GND 5e-15
xM210_ #31 b1n O2_ar Vdd sky130_fd_pr__pfet_01v8  W=5.7 L=0.15 nrs=1 nrd=1 nf=1
xM211_ #33 __b1 O2_ar Vdd sky130_fd_pr__pfet_01v8  W=5.7 L=0.15 nrs=1 nrd=1 nf=1
xM212_ #35 __b2 O2_ar Vdd sky130_fd_pr__pfet_01v8  W=7.125 L=0.15 nrs=1 nrd=1 nf=1
xM213_ #38 __b1 O2_ar GND sky130_fd_pr__nfet_01v8 W=1.5 L=0.15 nrs=1 nrd=1 nf=1
xM214_ #39 b1n O2_ar GND sky130_fd_pr__nfet_01v8 W=1.5 L=0.15 nrs=1 nrd=1 nf=1
xM215_ #40 b2n O2_ar GND sky130_fd_pr__nfet_01v8 W=2.25 L=0.15 nrs=1 nrd=1 nf=1
xM216_keeper #144 #fb143# O2_ar Vdd sky130_fd_pr__pfet_01v8  W=0.45 L=0.15 nrs=1 nrd=1 nf=1
xM217_keeper #145 #fb143# O2_ar GND sky130_fd_pr__nfet_01v8 W=0.45 L=0.15 nrs=1 nrd=1 nf=1
xM218_ #30 __max2__r #32 Vdd sky130_fd_pr__pfet_01v8  W=2.85 L=0.15 nrs=1 nrd=1 nf=1
xM219_ #30 __max3__r #34 Vdd sky130_fd_pr__pfet_01v8  W=2.85 L=0.15 nrs=1 nrd=1 nf=1
xM220_ #30 __max4__r #37 Vdd sky130_fd_pr__pfet_01v8  W=3.525 L=0.15 nrs=1 nrd=1 nf=1
xM221_ #32 max2_aa #31 Vdd sky130_fd_pr__pfet_01v8  W=5.7 L=0.15 nrs=1 nrd=1 nf=1
xM222_ #34 max3_aa #33 Vdd sky130_fd_pr__pfet_01v8  W=5.7 L=0.15 nrs=1 nrd=1 nf=1
xM223_ #36 b1n #35 Vdd sky130_fd_pr__pfet_01v8  W=7.125 L=0.15 nrs=1 nrd=1 nf=1
xM224_ #37 max4_aa #36 Vdd sky130_fd_pr__pfet_01v8  W=7.125 L=0.15 nrs=1 nrd=1 nf=1
xM225_ #41 __b1 #40 GND sky130_fd_pr__nfet_01v8 W=2.25 L=0.15 nrs=1 nrd=1 nf=1
C_per_node_14 O3_ar GND 5e-15
xM226_ #44 b2n O3_ar Vdd sky130_fd_pr__pfet_01v8  W=7.125 L=0.15 nrs=1 nrd=1 nf=1
xM227_ #47 b2n O3_ar Vdd sky130_fd_pr__pfet_01v8  W=7.125 L=0.15 nrs=1 nrd=1 nf=1
xM228_ #50 __b2 O3_ar GND sky130_fd_pr__nfet_01v8 W=2.25 L=0.15 nrs=1 nrd=1 nf=1
xM229_ #52 __b2 O3_ar GND sky130_fd_pr__nfet_01v8 W=2.25 L=0.15 nrs=1 nrd=1 nf=1
xM230_keeper #147 #fb146# O3_ar Vdd sky130_fd_pr__pfet_01v8  W=0.45 L=0.15 nrs=1 nrd=1 nf=1
xM231_keeper #148 #fb146# O3_ar GND sky130_fd_pr__nfet_01v8 W=0.45 L=0.15 nrs=1 nrd=1 nf=1
xM232_ #43 __max3__r #46 Vdd sky130_fd_pr__pfet_01v8  W=3.525 L=0.15 nrs=1 nrd=1 nf=1
xM233_ #43 __max4__r #49 Vdd sky130_fd_pr__pfet_01v8  W=3.525 L=0.15 nrs=1 nrd=1 nf=1
xM234_ #45 b1n #44 Vdd sky130_fd_pr__pfet_01v8  W=7.125 L=0.15 nrs=1 nrd=1 nf=1
xM235_ #46 max3_aa #45 Vdd sky130_fd_pr__pfet_01v8  W=7.125 L=0.15 nrs=1 nrd=1 nf=1
xM236_ #48 __b1 #47 Vdd sky130_fd_pr__pfet_01v8  W=7.125 L=0.15 nrs=1 nrd=1 nf=1
xM237_ #49 max4_aa #48 Vdd sky130_fd_pr__pfet_01v8  W=7.125 L=0.15 nrs=1 nrd=1 nf=1
xM238_ #51 __b1 #50 GND sky130_fd_pr__nfet_01v8 W=2.25 L=0.15 nrs=1 nrd=1 nf=1
xM239_ #53 b1n #52 GND sky130_fd_pr__nfet_01v8 W=2.25 L=0.15 nrs=1 nrd=1 nf=1
C_per_node_15 O4_ar GND 5e-15
xM240_ #55 b2n O4_ar Vdd sky130_fd_pr__pfet_01v8  W=5.7 L=0.15 nrs=1 nrd=1 nf=1
xM241_ #59 __b2 O4_ar GND sky130_fd_pr__nfet_01v8 W=2.25 L=0.15 nrs=1 nrd=1 nf=1
xM242_keeper #150 #fb149# O4_ar Vdd sky130_fd_pr__pfet_01v8  W=0.45 L=0.15 nrs=1 nrd=1 nf=1
xM243_keeper #151 #fb149# O4_ar GND sky130_fd_pr__nfet_01v8 W=0.45 L=0.15 nrs=1 nrd=1 nf=1
xM244_ #56 b1n #55 Vdd sky130_fd_pr__pfet_01v8  W=5.7 L=0.15 nrs=1 nrd=1 nf=1
xM245_ #57 max4_aa #56 Vdd sky130_fd_pr__pfet_01v8  W=5.7 L=0.15 nrs=1 nrd=1 nf=1
xM246_ #58 __max4__r #57 Vdd sky130_fd_pr__pfet_01v8  W=5.7 L=0.15 nrs=1 nrd=1 nf=1
xM247_ #60 __b1 #59 GND sky130_fd_pr__nfet_01v8 W=2.25 L=0.15 nrs=1 nrd=1 nf=1
C_per_node_16 b1 GND 5e-15
xM248_ #62 __min3__r b1 Vdd sky130_fd_pr__pfet_01v8  W=1.125 L=0.15 nrs=1 nrd=1 nf=1
xM249_ #62 __min1__r b1 Vdd sky130_fd_pr__pfet_01v8  W=1.125 L=0.15 nrs=1 nrd=1 nf=1
xM250_keeper #152 __b1 b1 Vdd sky130_fd_pr__pfet_01v8  W=0.45 L=0.15 nrs=1 nrd=1 nf=1
xM251_keeper #153 __b1 b1 GND sky130_fd_pr__nfet_01v8 W=0.45 L=0.15 nrs=1 nrd=1 nf=1
C_per_node_17 __min3__r GND 5e-15
C_per_node_18 __min1__r GND 5e-15
C_per_node_19 b2 GND 5e-15
xM252_ #68 __min3__r b2 Vdd sky130_fd_pr__pfet_01v8  W=1.125 L=0.15 nrs=1 nrd=1 nf=1
xM253_ #68 __min2__r b2 Vdd sky130_fd_pr__pfet_01v8  W=1.125 L=0.15 nrs=1 nrd=1 nf=1
xM254_keeper #154 __b2 b2 Vdd sky130_fd_pr__pfet_01v8  W=0.45 L=0.15 nrs=1 nrd=1 nf=1
xM255_keeper #155 __b2 b2 GND sky130_fd_pr__nfet_01v8 W=0.45 L=0.15 nrs=1 nrd=1 nf=1
C_per_node_20 __min2__r GND 5e-15
C_per_node_21 min3_aa GND 5e-15
xM256_ #72 __min3__r min3_aa Vdd sky130_fd_pr__pfet_01v8  W=2.25 L=0.15 nrs=1 nrd=1 nf=1
xM257_keeper #157 #fb156# min3_aa Vdd sky130_fd_pr__pfet_01v8  W=0.45 L=0.15 nrs=1 nrd=1 nf=1
xM258_keeper #158 #fb156# min3_aa GND sky130_fd_pr__nfet_01v8 W=0.45 L=0.15 nrs=1 nrd=1 nf=1
xM259_ #73 __b2 #72 Vdd sky130_fd_pr__pfet_01v8  W=2.25 L=0.15 nrs=1 nrd=1 nf=1
xM260_ #74 __b1 #73 Vdd sky130_fd_pr__pfet_01v8  W=2.25 L=0.15 nrs=1 nrd=1 nf=1
C_per_node_22 min2_aa GND 5e-15
xM261_ #76 __min2__r min2_aa Vdd sky130_fd_pr__pfet_01v8  W=2.25 L=0.15 nrs=1 nrd=1 nf=1
xM262_keeper #160 #fb159# min2_aa Vdd sky130_fd_pr__pfet_01v8  W=0.45 L=0.15 nrs=1 nrd=1 nf=1
xM263_keeper #161 #fb159# min2_aa GND sky130_fd_pr__nfet_01v8 W=0.45 L=0.15 nrs=1 nrd=1 nf=1
xM264_ #77 __b2 #76 Vdd sky130_fd_pr__pfet_01v8  W=2.25 L=0.15 nrs=1 nrd=1 nf=1
xM265_ #78 b1n #77 Vdd sky130_fd_pr__pfet_01v8  W=2.25 L=0.15 nrs=1 nrd=1 nf=1
C_per_node_23 min1_aa GND 5e-15
xM266_ #80 __min1__r min1_aa Vdd sky130_fd_pr__pfet_01v8  W=2.25 L=0.15 nrs=1 nrd=1 nf=1
xM267_keeper #163 #fb162# min1_aa Vdd sky130_fd_pr__pfet_01v8  W=0.45 L=0.15 nrs=1 nrd=1 nf=1
xM268_keeper #164 #fb162# min1_aa GND sky130_fd_pr__nfet_01v8 W=0.45 L=0.15 nrs=1 nrd=1 nf=1
xM269_ #81 b2n #80 Vdd sky130_fd_pr__pfet_01v8  W=2.25 L=0.15 nrs=1 nrd=1 nf=1
xM270_ #82 __b1 #81 Vdd sky130_fd_pr__pfet_01v8  W=2.25 L=0.15 nrs=1 nrd=1 nf=1
C_per_node_24 reset_aa GND 5e-15
xM271_ #84 __reset__r reset_aa Vdd sky130_fd_pr__pfet_01v8  W=2.25 L=0.15 nrs=1 nrd=1 nf=1
xM272_keeper #166 #fb165# reset_aa Vdd sky130_fd_pr__pfet_01v8  W=0.45 L=0.15 nrs=1 nrd=1 nf=1
xM273_keeper #167 #fb165# reset_aa GND sky130_fd_pr__nfet_01v8 W=0.45 L=0.15 nrs=1 nrd=1 nf=1
xM274_ #85 b2n #84 Vdd sky130_fd_pr__pfet_01v8  W=2.25 L=0.15 nrs=1 nrd=1 nf=1
xM275_ #86 b1n #85 Vdd sky130_fd_pr__pfet_01v8  W=2.25 L=0.15 nrs=1 nrd=1 nf=1
C_per_node_25 __reset__r GND 5e-15
xM276_ #89 __O1__a #88 Vdd sky130_fd_pr__pfet_01v8  W=1.725 L=0.15 nrs=1 nrd=1 nf=1
C_per_node_26 __O1__a GND 5e-15
xM277_ #93 __O1__a #92 Vdd sky130_fd_pr__pfet_01v8  W=3.375 L=0.15 nrs=1 nrd=1 nf=1
xM278_ #93 __O2__a #92 Vdd sky130_fd_pr__pfet_01v8  W=3.375 L=0.15 nrs=1 nrd=1 nf=1
C_per_node_27 __O2__a GND 5e-15
xM279_ #96 __O2__a #95 GND sky130_fd_pr__nfet_01v8 W=2.25 L=0.15 nrs=1 nrd=1 nf=1
xM280_ #98 __O1__a #97 Vdd sky130_fd_pr__pfet_01v8  W=3.375 L=0.15 nrs=1 nrd=1 nf=1
xM281_ #98 __O2__a #97 Vdd sky130_fd_pr__pfet_01v8  W=3.375 L=0.15 nrs=1 nrd=1 nf=1
xM282_ #98 __O3__a #97 Vdd sky130_fd_pr__pfet_01v8  W=3.375 L=0.15 nrs=1 nrd=1 nf=1
C_per_node_28 __O3__a GND 5e-15
xM283_ #101 __O3__a #100 GND sky130_fd_pr__nfet_01v8 W=3 L=0.15 nrs=1 nrd=1 nf=1
xM284_ #102 __O2__a #101 GND sky130_fd_pr__nfet_01v8 W=3 L=0.15 nrs=1 nrd=1 nf=1
xM285_ #104 __O1__a #103 Vdd sky130_fd_pr__pfet_01v8  W=3.375 L=0.15 nrs=1 nrd=1 nf=1
xM286_ #104 __O2__a #103 Vdd sky130_fd_pr__pfet_01v8  W=3.375 L=0.15 nrs=1 nrd=1 nf=1
xM287_ #104 __O3__a #103 Vdd sky130_fd_pr__pfet_01v8  W=3.375 L=0.15 nrs=1 nrd=1 nf=1